sim-outorder: SimpleScalar/Alpha Tool Set version 3.0 of August, 2003.
Copyright (c) 1994-2003 by Todd M. Austin, Ph.D. and SimpleScalar, LLC.
All Rights Reserved. This version of SimpleScalar is licensed for academic
non-commercial use.  No portion of this work may be used by any commercial
entity, or for any commercial purpose, without the prior written permission
of SimpleScalar, LLC (info@simplescalar.com).

sim: command line: ../../simplesim-3.0/sim-outorder -max:inst 250000000 -fastfwd 0 -redir:sim bzip24.txt -mshr true -mshr:size 32 -cache:dl1 dl1:64:64:8:l -cache:dl2 ul2:512:64:8:l -cache:dl3 ul3:1024:64:16:l -cache:dl2lat 10 -cache:dl3lat 30 -mem:lat 200 2 bzip24.base.alpha input.program 280 

sim: simulation started @ Wed Dec 10 09:31:57 2014, options follow:

sim-outorder: This simulator implements a very detailed out-of-order issue
superscalar processor with a two-level memory system and speculative
execution support.  This simulator is a performance simulator, tracking the
latency of all pipeline operations.

# -config                     # load configuration from a file
# -dumpconfig                 # dump configuration to a file
# -h                    false # print help message    
# -v                    false # verbose operation     
# -d                    false # enable debug message  
# -i                    false # start in Dlite debugger
-seed                       1 # random number generator seed (0 for timer seed)
# -q                    false # initialize and terminate immediately
# -chkpt               <null> # restore EIO trace execution from <fname>
# -redir:sim       bzip24.txt # redirect simulator output to file (non-interactive only)
# -redir:prog          <null> # redirect simulated program output to file
-nice                       0 # simulator scheduling priority
-max:inst           250000000 # maximum number of inst's to execute
-fastfwd                    0 # number of insts skipped before timing starts
# -ptrace              <null> # generate pipetrace, i.e., <fname|stdout|stderr> <range>
-fetch:ifqsize              4 # instruction fetch queue size (in insts)
-fetch:mplat                3 # extra branch mis-prediction latency
-fetch:speed                1 # speed of front-end of machine relative to execution core
-bpred                  bimod # branch predictor type {nottaken|taken|perfect|bimod|2lev|comb}
-bpred:bimod     2048 # bimodal predictor config (<table size>)
-bpred:2lev      1 1024 8 0 # 2-level predictor config (<l1size> <l2size> <hist_size> <xor>)
-bpred:comb      1024 # combining predictor config (<meta_table_size>)
-bpred:ras                  8 # return address stack size (0 for no return stack)
-bpred:btb       512 4 # BTB config (<num_sets> <associativity>)
# -bpred:spec_update       <null> # speculative predictors update in {ID|WB} (default non-spec)
-decode:width               4 # instruction decode B/W (insts/cycle)
-issue:width                4 # instruction issue B/W (insts/cycle)
-issue:inorder          false # run pipeline with in-order issue
-issue:wrongpath         true # issue instructions down wrong execution paths
-commit:width               4 # instruction commit B/W (insts/cycle)
-ruu:size                  16 # register update unit (RUU) size
-lsq:size                   8 # load/store queue (LSQ) size
-cache:dl1       dl1:64:64:8:l # l1 data cache config, i.e., {<config>|none}
-cache:dl1lat               1 # l1 data cache hit latency (in cycles)
-cache:dl2       ul2:512:64:8:l # l2 data cache config, i.e., {<config>|none}
-cache:dl2lat              10 # l2 data cache hit latency (in cycles)
-cache:dl3       ul3:1024:64:16:l # l3 data cache config, i.e., {<config>|none}
-cache:dl3lat              30 # l3 data cache hit latency (in cycles)
-cache:il1       il1:512:32:1:l # l1 inst cache config, i.e., {<config>|dl1|dl2|none}
-cache:il1lat               1 # l1 instruction cache hit latency (in cycles)
-cache:il2                dl2 # l2 instruction cache config, i.e., {<config>|dl2|none}
-cache:il2lat               6 # l2 instruction cache hit latency (in cycles)
-cache:flush            false # flush caches on system calls
-cache:icompress        false # convert 64-bit inst addresses to 32-bit inst equivalents
-mem:lat         200 2 # memory access latency (<first_chunk> <inter_chunk>)
-mem:width                  8 # memory access bus width (in bytes)
# -cache:prefetch        false # to prefetch or not to prefetch. That is the problem.
-tlb:itlb        itlb:16:4096:4:l # instruction TLB config, i.e., {<config>|none}
-tlb:dtlb        dtlb:32:4096:4:l # data TLB config, i.e., {<config>|none}
-tlb:lat                   30 # inst/data TLB miss latency (in cycles)
-res:ialu                   4 # total number of integer ALU's available
-res:imult                  1 # total number of integer multiplier/dividers available
-res:memport                2 # total number of memory system ports available (to CPU)
-res:fpalu                  4 # total number of floating point ALU's available
-res:fpmult                 1 # total number of floating point multiplier/dividers available
# -pcstat              <null> # profile stat(s) against text addr's (mult uses ok)
-bugcompat              false # operate in backward-compatible bugs mode (for testing only)
-mshr                    true # MSHR on/off           
-mshr:size                 32 # Number of MSHR        

  Pipetrace range arguments are formatted as follows:

    {{@|#}<start>}:{{@|#|+}<end>}

  Both ends of the range are optional, if neither are specified, the entire
  execution is traced.  Ranges that start with a `@' designate an address
  range to be traced, those that start with an `#' designate a cycle count
  range.  All other range values represent an instruction count range.  The
  second argument, if specified with a `+', indicates a value relative
  to the first argument, e.g., 1000:+100 == 1000:1100.  Program symbols may
  be used in all contexts.

    Examples:   -ptrace FOO.trc #0:#1000
                -ptrace BAR.trc @2000:
                -ptrace BLAH.trc :1500
                -ptrace UXXE.trc :
                -ptrace FOOBAR.trc @main:+278

  Branch predictor configuration examples for 2-level predictor:
    Configurations:   N, M, W, X
      N   # entries in first level (# of shift register(s))
      W   width of shift register(s)
      M   # entries in 2nd level (# of counters, or other FSM)
      X   (yes-1/no-0) xor history and address for 2nd level index
    Sample predictors:
      GAg     : 1, W, 2^W, 0
      GAp     : 1, W, M (M > 2^W), 0
      PAg     : N, W, 2^W, 0
      PAp     : N, W, M (M == 2^(N+W)), 0
      gshare  : 1, W, 2^W, 1
  Predictor `comb' combines a bimodal and a 2-level predictor.

  The cache config parameter <config> has the following format:

    <name>:<nsets>:<bsize>:<assoc>:<repl>

    <name>   - name of the cache being defined
    <nsets>  - number of sets in the cache
    <bsize>  - block size of the cache
    <assoc>  - associativity of the cache
    <repl>   - block replacement strategy, 'l'-LRU, 'f'-FIFO, 'r'-random

    Examples:   -cache:dl1 dl1:4096:32:1:l
                -dtlb dtlb:128:4096:32:r

  Cache levels can be unified by pointing a level of the instruction cache
  hierarchy at the data cache hiearchy using the "dl1" and "dl2" cache
  configuration arguments.  Most sensible combinations are supported, e.g.,

    A unified l2 cache (il2 is pointed at dl2):
      -cache:il1 il1:128:64:1:l -cache:il2 dl2
      -cache:dl1 dl1:256:32:1:l -cache:dl2 ul2:1024:64:2:l

    Or, a fully unified cache hierarchy (il1 pointed at dl1):
      -cache:il1 dl1
      -cache:dl1 ul1:256:32:1:l -cache:dl2 ul2:1024:64:2:l



sim: ** starting performance simulation **

sim: ** simulation statistics **
sim_num_insn              250000000 # total number of instructions committed
sim_num_refs              164065532 # total number of loads and stores committed
sim_num_loads             123300043 # total number of loads committed
sim_num_stores         40765489.0000 # total number of stores committed
sim_num_branches            8826499 # total number of branches committed
sim_elapsed_time                551 # total simulation time in seconds
sim_inst_rate           453720.5082 # simulation speed (in insts/sec)
sim_total_insn            251208193 # total number of instructions executed
sim_total_refs            164437987 # total number of loads and stores executed
sim_total_loads           123604562 # total number of loads executed
sim_total_stores       40833425.0000 # total number of stores executed
sim_total_branches          8895019 # total number of branches executed
sim_cycle                2152976352 # total simulation time in cycles
sim_IPC                      0.1161 # instructions per cycle
sim_CPI                      8.6119 # cycles per instruction
sim_exec_BW                  0.1167 # total instructions (mis-spec + committed) per cycle
sim_IPB                     28.3238 # instruction per branch
IFQ_count                8604987147 # cumulative IFQ occupancy
IFQ_fcount               2149580958 # cumulative IFQ full count
ifq_occupancy                3.9968 # avg IFQ occupancy (insn's)
ifq_rate                     0.1167 # avg IFQ dispatch rate (insn/cycle)
ifq_latency                 34.2544 # avg IFQ occupant latency (cycle's)
ifq_full                     0.9984 # fraction of time (cycle's) IFQ was full
RUU_count               22345952709 # cumulative RUU occupancy
RUU_fcount                161550959 # cumulative RUU full count
ruu_occupancy               10.3791 # avg RUU occupancy (insn's)
ruu_rate                     0.1167 # avg RUU dispatch rate (insn/cycle)
ruu_latency                 88.9539 # avg RUU occupant latency (cycle's)
ruu_full                     0.0750 # fraction of time (cycle's) RUU was full
LSQ_count               16663786161 # cumulative LSQ occupancy
LSQ_fcount               1972071029 # cumulative LSQ full count
lsq_occupancy                7.7399 # avg LSQ occupancy (insn's)
lsq_rate                     0.1167 # avg LSQ dispatch rate (insn/cycle)
lsq_latency                 66.3346 # avg LSQ occupant latency (cycle's)
lsq_full                     0.9160 # fraction of time (cycle's) LSQ was full
sim_slip               62354159874690661 # total number of slip cycles
avg_sim_slip           249416639.4988 # the average slip between issue and retirement
bpred_bimod.lookups         8895284 # total number of bpred lookups
bpred_bimod.updates         8826499 # total number of updates
bpred_bimod.addr_hits       8693484 # total number of address-predicted hits
bpred_bimod.dir_hits        8693775 # total number of direction-predicted hits (includes addr-hits)
bpred_bimod.misses           132724 # total number of misses
bpred_bimod.jr_hits           34148 # total number of address-predicted hits for JR's
bpred_bimod.jr_seen           34300 # total number of JR's seen
bpred_bimod.jr_non_ras_hits.PP          739 # total number of address-predicted hits for non-RAS JR's
bpred_bimod.jr_non_ras_seen.PP          812 # total number of non-RAS JR's seen
bpred_bimod.bpred_addr_rate    0.9849 # branch address-prediction rate (i.e., addr-hits/updates)
bpred_bimod.bpred_dir_rate    0.9850 # branch direction-prediction rate (i.e., all-hits/updates)
bpred_bimod.bpred_jr_rate    0.9956 # JR address-prediction rate (i.e., JR addr-hits/JRs seen)
bpred_bimod.bpred_jr_non_ras_rate.PP    0.9101 # non-RAS JR addr-pred rate (ie, non-RAS JR hits/JRs seen)
bpred_bimod.retstack_pushes        33537 # total number of address pushed onto ret-addr stack
bpred_bimod.retstack_pops        33578 # total number of address popped off of ret-addr stack
bpred_bimod.used_ras.PP        33488 # total number of RAS predictions used
bpred_bimod.ras_hits.PP        33409 # total number of RAS hits
bpred_bimod.ras_rate.PP    0.9976 # RAS prediction rate (i.e., RAS hits/used RAS)
il1.accesses              251738563 # total number of accesses
il1.hits                  251737468 # total number of hits
il1.misses                     1095 # total number of misses
il1.replacements                720 # total number of replacements
il1.writebacks                    0 # total number of writebacks
il1.invalidations                 0 # total number of invalidations
il1.miss_rate                0.0000 # miss rate (i.e., misses/ref)
il1.repl_rate                0.0000 # replacement rate (i.e., repls/ref)
il1.wb_rate                  0.0000 # writeback rate (i.e., wrbks/ref)
il1.inv_rate                 0.0000 # invalidation rate (i.e., invs/ref)
dl1.accesses              164131048 # total number of accesses
dl1.hits                  154042012 # total number of hits
dl1.misses                 10089036 # total number of misses
dl1.replacements           10088524 # total number of replacements
dl1.writebacks              5333564 # total number of writebacks
dl1.invalidations                 0 # total number of invalidations
dl1.miss_rate                0.0615 # miss rate (i.e., misses/ref)
dl1.repl_rate                0.0615 # replacement rate (i.e., repls/ref)
dl1.wb_rate                  0.0325 # writeback rate (i.e., wrbks/ref)
dl1.inv_rate                 0.0000 # invalidation rate (i.e., invs/ref)
dl1.mshr.mshr_accesses            0 # total number of mshr accesses
dl1.mshr.mshr_hits_under_misses            0 # total number of hits under misses in mshr
dl1.mshr.mshr_hit_rate <error: divide by zero> # hit rate (i.e., hits/accesses) in mshr
dl1.mshr.mshr_full                0 # total number of full events in mshr
dl1.mshr.mshr_primary_misses            0 # total number of primary misses in MSHR
dl1.mshr.mshr_target_full            0 # total number of target full events in mshr
ul2.accesses               15423694 # total number of accesses
ul2.hits                    5334011 # total number of hits
ul2.misses                 10089683 # total number of misses
ul2.replacements           10085587 # total number of replacements
ul2.writebacks              5331715 # total number of writebacks
ul2.invalidations                 0 # total number of invalidations
ul2.miss_rate                0.6542 # miss rate (i.e., misses/ref)
ul2.repl_rate                0.6539 # replacement rate (i.e., repls/ref)
ul2.wb_rate                  0.3457 # writeback rate (i.e., wrbks/ref)
ul2.inv_rate                 0.0000 # invalidation rate (i.e., invs/ref)
ul2.mshr.mshr_accesses            0 # total number of mshr accesses
ul2.mshr.mshr_hits_under_misses            0 # total number of hits under misses in mshr
ul2.mshr.mshr_hit_rate <error: divide by zero> # hit rate (i.e., hits/accesses) in mshr
ul2.mshr.mshr_full                0 # total number of full events in mshr
ul2.mshr.mshr_primary_misses            0 # total number of primary misses in MSHR
ul2.mshr.mshr_target_full            0 # total number of target full events in mshr
ul3.accesses               15421398 # total number of accesses
ul3.hits                    5331715 # total number of hits
ul3.misses                 10089683 # total number of misses
ul3.replacements           10073299 # total number of replacements
ul3.writebacks              5326142 # total number of writebacks
ul3.invalidations                 0 # total number of invalidations
ul3.miss_rate                0.6543 # miss rate (i.e., misses/ref)
ul3.repl_rate                0.6532 # replacement rate (i.e., repls/ref)
ul3.wb_rate                  0.3454 # writeback rate (i.e., wrbks/ref)
ul3.inv_rate                 0.0000 # invalidation rate (i.e., invs/ref)
ul3.mshr.mshr_accesses     10089683 # total number of mshr accesses
ul3.mshr.mshr_hits_under_misses            0 # total number of hits under misses in mshr
ul3.mshr.mshr_hit_rate       0.0000 # hit rate (i.e., hits/accesses) in mshr
ul3.mshr.mshr_full                0 # total number of full events in mshr
ul3.mshr.mshr_primary_misses     10089683 # total number of primary misses in MSHR
ul3.mshr.mshr_target_full            0 # total number of target full events in mshr
itlb.accesses             251738563 # total number of accesses
itlb.hits                 251738537 # total number of hits
itlb.misses                      26 # total number of misses
itlb.replacements                 0 # total number of replacements
itlb.writebacks                   0 # total number of writebacks
itlb.invalidations                0 # total number of invalidations
itlb.miss_rate               0.0000 # miss rate (i.e., misses/ref)
itlb.repl_rate               0.0000 # replacement rate (i.e., repls/ref)
itlb.wb_rate                 0.0000 # writeback rate (i.e., wrbks/ref)
itlb.inv_rate                0.0000 # invalidation rate (i.e., invs/ref)
dtlb.accesses             164199166 # total number of accesses
dtlb.hits                 163772578 # total number of hits
dtlb.misses                  426588 # total number of misses
dtlb.replacements            426460 # total number of replacements
dtlb.writebacks                   0 # total number of writebacks
dtlb.invalidations                0 # total number of invalidations
dtlb.miss_rate               0.0026 # miss rate (i.e., misses/ref)
dtlb.repl_rate               0.0026 # replacement rate (i.e., repls/ref)
dtlb.wb_rate                 0.0000 # writeback rate (i.e., wrbks/ref)
dtlb.inv_rate                0.0000 # invalidation rate (i.e., invs/ref)
sim_invalid_addrs                 0 # total non-speculative bogus addresses seen (debug var)
cache_total_prefetches            0 # total prefetches
ld_text_base           0x0120000000 # program text (code) segment base
ld_text_size                 221184 # program text (code) size in bytes
ld_data_base           0x0140000000 # program initialized data segment base
ld_data_size                  79792 # program init'ed `.data' and uninit'ed `.bss' size in bytes
ld_stack_base          0x011ff9b000 # program stack segment base (highest address in stack)
ld_stack_size                 16384 # program initial stack size
ld_prog_entry          0x0120000300 # program entry point (initial PC)
ld_environ_base        0x011ff97000 # program environment base address address
ld_target_big_endian              0 # target executable endian-ness, non-zero if big endian
mem.page_count               107660 # total number of pages allocated
mem.page_mem                861280k # total size of memory pages allocated
mem.ptab_misses             1026343 # total first level page table misses
mem.ptab_accesses        3011311666 # total page table accesses
mem.ptab_miss_rate           0.0003 # first level page table miss rate

